Version 4
SHEET 1 880 680
WIRE 384 48 224 48
WIRE 224 112 224 48
WIRE 224 128 224 112
WIRE 64 176 -48 176
WIRE 160 176 144 176
WIRE -48 240 -48 176
WIRE 224 240 224 224
WIRE -48 368 -48 320
WIRE -16 368 -48 368
WIRE 224 368 224 320
WIRE 224 368 -16 368
WIRE 384 368 384 128
WIRE 384 368 224 368
FLAG -16 368 0
FLAG 224 112 a
FLAG 224 240 b
FLAG 160 176 c
SYMBOL pnp 160 224 M180
SYMATTR InstName Q1
SYMATTR Value efremov
SYMBOL voltage 384 32 R0
WINDOW 123 0 0 Left 0
WINDOW 39 0 0 Left 0
SYMATTR InstName Vcc
SYMATTR Value 2.5
SYMBOL res 160 160 R90
WINDOW 0 0 56 VBottom 2
WINDOW 3 32 56 VTop 2
SYMATTR InstName R1
SYMATTR Value 10k
SYMBOL res 208 224 R0
SYMATTR InstName Rk
SYMATTR Value 884
SYMBOL voltage -48 224 R0
WINDOW 123 0 0 Left 0
WINDOW 39 0 0 Left 0
SYMATTR InstName Vbb
SYMATTR Value SINE(2.04 13m 1k)
TEXT -48 432 Left 2 !.model efremov pnp BF=210 RE=1.02 RC=2.07 NF=1.06 IS=39.26p
TEXT -48 456 Left 2 !.tran 0 1.01 1
TEXT -48 488 Left 2 !.meas tran Vc_pp pp v(c)
TEXT -48 512 Left 2 !.meas tran Vb_pp pp v(b)
TEXT -48 536 Left 2 !.meas tran K_pp param Vb_pp/Vc_pp
