Version 4
SHEET 1 1044 680
WIRE 272 -160 96 -160
WIRE 96 -128 96 -160
WIRE 272 -128 272 -160
WIRE 96 -16 96 -48
WIRE 128 -16 96 -16
WIRE 272 -16 272 -64
WIRE 272 -16 128 -16
FLAG 128 -16 0
SYMBOL diode 256 -128 R0
SYMATTR InstName D1
SYMBOL voltage 96 -144 R0
WINDOW 123 0 0 Left 2
WINDOW 39 0 0 Left 2
SYMATTR InstName V1
SYMATTR Value SINE(0 2 1k 0)
TEXT 88 304 Left 2 !.model D1 D IS=18.8n RS=0 BV=400 IBV=5.00u CJO=30 M=0.333 N=2
TEXT 86 324 Left 2 !.tran 0 14m 10m
