Version 4
SHEET 1 880 680
WIRE 272 -64 272 -96
WIRE 224 -48 0 -48
WIRE 240 -48 224 -48
WIRE 0 -32 0 -48
WIRE 336 -32 304 -32
WIRE 480 -32 336 -32
WIRE 224 -16 128 -16
WIRE 240 -16 224 -16
WIRE 480 0 480 -32
WIRE 128 16 128 -16
WIRE 272 32 272 0
WIRE 480 112 480 80
FLAG 272 112 0
FLAG 272 -176 0
FLAG 128 96 0
FLAG 0 48 0
FLAG 480 112 0
FLAG 224 -48 a
FLAG 224 -16 b
FLAG 336 -32 out
SYMBOL Opamps\\LT1037A 272 -96 R0
SYMATTR InstName U1
SYMBOL voltage 128 0 R0
WINDOW 123 0 0 Left 2
WINDOW 39 0 0 Left 2
SYMATTR InstName Vin2
SYMATTR Value SINE(0 4.5m 80)
SYMBOL voltage 0 -48 R0
WINDOW 123 0 0 Left 2
WINDOW 39 0 0 Left 2
SYMATTR InstName Vin1
SYMATTR Value 0
SYMBOL voltage 272 -80 R180
WINDOW 123 0 0 Left 2
WINDOW 39 0 0 Left 2
SYMATTR InstName E+
SYMATTR Value 25
SYMBOL voltage 272 16 R0
WINDOW 123 0 0 Left 2
WINDOW 39 0 0 Left 2
SYMATTR InstName E-
SYMATTR Value -25
SYMBOL res 464 -16 R0
SYMATTR InstName R1
SYMATTR Value 4k
TEXT 0 184 Left 2 !.tran 0 1 0.95
TEXT 0 224 Left 2 !.four 80 v(out)
