Version 4
SHEET 1 880 680
WIRE 304 48 160 48
WIRE 480 48 368 48
WIRE 48 128 32 128
WIRE 160 128 160 48
WIRE 160 128 128 128
WIRE 192 128 160 128
WIRE 304 128 272 128
WIRE 368 128 304 128
WIRE 480 144 480 48
WIRE 480 144 432 144
WIRE 496 144 480 144
WIRE 304 160 304 128
WIRE 368 160 352 160
WIRE 32 208 32 128
WIRE 352 240 352 160
WIRE 384 240 352 240
WIRE 480 240 480 144
WIRE 480 240 464 240
WIRE 352 272 352 240
FLAG 304 224 0
FLAG 352 352 0
FLAG 32 128 in
FLAG 496 144 out
FLAG 32 288 0
SYMBOL res 144 112 R90
WINDOW 0 0 56 VBottom 2
WINDOW 3 32 56 VTop 2
SYMATTR InstName R1
SYMATTR Value 4.2k
SYMBOL res 288 112 R90
WINDOW 0 0 56 VBottom 2
WINDOW 3 32 56 VTop 2
SYMATTR InstName R2
SYMATTR Value 6.6k
SYMBOL cap 288 160 R0
SYMATTR InstName C1
SYMATTR Value 10p
SYMBOL res 336 256 R0
SYMATTR InstName R3
SYMATTR Value 38k
SYMBOL res 480 224 R90
WINDOW 0 0 56 VBottom 2
WINDOW 3 32 56 VTop 2
SYMATTR InstName R4
SYMATTR Value 68.4k
SYMBOL cap 368 32 R90
WINDOW 0 0 32 VBottom 2
WINDOW 3 32 32 VTop 2
SYMATTR InstName C2
SYMATTR Value 15p
SYMBOL voltage 32 192 R0
WINDOW 123 24 124 Left 2
WINDOW 39 0 0 Left 0
SYMATTR InstName V1
SYMATTR Value ""
SYMATTR Value2 AC 1 0
SYMBOL OpAmps\\UniversalOpAmp1 400 144 M180
SYMATTR InstName U1
TEXT 56 424 Left 2 !.ac dec 100 10 500Mega
